&nam_rms_restart
 filei1='/workd/htsujino/BC_VORTEX_NEST/initial_sub/rs_ssh.19010101000000',
 fileo1='hs_ssh_rms_start.txt',
 klevel=1,
 TUXY='T',
 nbw=3
 nbe=3
 nbs=3
 nbn=3
&end
