&nam_comp_high
 filei1='%hs_rgn%',
 filei2='%hs_all%',
 fileo1='%hs_rms%',
 klevel=%klevel%
 TUXY='T'
 nbw=3
 nbe=3
 nbs=3
 nbn=3
&end
