&nam_rms_restart
 filei1='/workd/htsujino/BC_VORTEX_NEST/initial_parent/rs_ssh.19010101000000',
 fileo1='hs_ssh_rms_start.txt',
 klevel=1,
 TUXY='T',
 ibst=22
 ibed=42
 jbst=32
 jbed=62
&end
